New "LoadShape.default" interval=1 npts=24 mult=[ 0.677 0.6256 0.6087 0.5833 0.58028 0.6025 0.657 0.7477 0.832 0.88 0.94 0.989 0.985 0.98 0.9898 0.999 1 0.958 0.936 0.913 0.876 0.876 0.828 0.756]
New "LoadShape.commercial" sinterval=1 npts=1 mult=[ 1]
New "LoadShape.other" sinterval=1 npts=1 mult=[ 1]
New "LoadShape.aggloadprofile" sinterval=1 npts=1 mult=[ 1]
New "LoadShape.loadshape1" sinterval=30 npts=2880 mult=[ 0 0 0 0 0 0 0 0 0 0 0 0 0 0 0 0 0 0 0 0 0 0 0 0 0 0 0 0 0 0 0 0 0 0 0 0 0 0 0 0 0 0 0 0 0 0 0 0 0 0 0 0 0 0 0 0 0 0 0 0 0 0 0 0 0 0 0 0 0 0 0 0 0 0 0 0 0 0 0 0 0 0 0 0 0 0 0 0 0 0 0 0 0 0 0 0 0 0 0 0 0 0 0 0 0 0 0 0 0 0 0 0 0 0 0 0 0 0 0 0 0 0 0 0 0 0 0 0 0 0 0 0 0 0 0 0 0 0 0 0 0 0 0 0 0 0 0 0 0 0 0 0 0 0 0 0 0 0 0 0 0 0 0 0 0 0 0 0 0 0 0 0 0 0 0 0 0 0 0 0 0 0 0 0 0 0 0 0 0 0 0 0 0 0 0 0 0 0 0.0978261 0.0978261 0.0978261 0.0978261 0.0978261 0.0978261 0.0978261 0.0978261 0 0 0 0 0 0 0 0 0 0 0 0 0 0 0 0 0 0 0 0 0.0543478 0.0543478 0.0543478 0.152174 0.152174 0.152174 0.152174 0.152174 0.152174 0.152174 0.0978261 0 0 0 0 0 0 0 0 0 0 0 0 0 0 0 0 0 0 0.0543478 0.0543478 0.0543478 0.0543478 0.0543478 0.0543478 0.0543478 0.0543478 0.0543478 0.0543478 0 0 0 0 0 0 0 0 0 0 0 0 0 0 0 0 0 0 0 0 0 0 0.195652 0.195652 0.195652 0.195652 0.195652 0.195652 0.195652 0.195652 0 0 0 0 0 0 0.0978261 0.0978261 0.0978261 0.0978261 0.0978261 0.0978261 0.0978261 0.0978261 0 0 0 0 0 0 0 0 0 0 0.0978261 0.0978261 0.0978261 0.0978261 0.0978261 0.0978261 0.0978261 0.0978261 0 0 0 0 0 0 0 0 0.0978261 0.0978261 0.0978261 0.0978261 0.0978261 0.0978261 0.0978261 0.0978261 0 0 0 0 0 0 0 0 0 0 0 0 0 0 0 0 0 0 0 0 0 0 0 0 0 0 0 0 0 0 0 0 0 0 0 0 0 0 0 0 0 0 0 0 0 0 0 0 0 0 0 0 0 0 0 0 0 0 0 0 0 0 0 0 0 0 0 0 0 0 0 0 0 0 0 0 0 0 0 0 0 0 0 0 0 0 0 0 0 0 0 0 0 0 0 0.130435 0.130435 0.130435 0.130435 0.130435 0.130435 0.130435 0.130435 0 0 0 0 0 0 0 0 0 0 0 0 0 0 0 0 0 0 0 0 0 0 0 0 0 0 0 0 0 0 0 0 0 0 0 0 0 0 0 0 0 0 0 0 0 0 0 0 0 0 0 0 0 0 0 0 0 0 0 0 0 0 0 0 0.130435 0.130435 0.130435 0.130435 0.130435 0.130435 0.130435 0.130435 0 0 0 0 0 0 0 0 0.130435 0.130435 0.130435 0.130435 0.130435 0.130435 0.130435 0.130435 0 0 0 0 0 0 0 0 0 0 0 0 0 0 0 0 0.0978261 0.0978261 0.0978261 0.0978261 0.0978261 0.0978261 0.0978261 0.0978261 0 0 0 0 0 0 0 0 0 0 0 0 0 0 0 0 0 0 0 0 0 0 0 0 0.0543478 0.0543478 0.0543478 0.0543478 0.0543478 0.152174 0.152174 0.152174 0.152174 0.152174 0.0978261 0.0978261 0.0978261 0.0978261 0.0978261 0.0978261 0.0978261 0.0978261 0.0978261 0.0978261 0.0978261 0 0 0 0 0 0 0.0978261 0.195652 0.195652 0.195652 0.195652 0.195652 0.195652 0.195652 0.0978261 0 0 0 0 0 0 0 0 0 0 0 0 0 0 0 0 0.0978261 0.0978261 0.0978261 0.0978261 0.0978261 0.0978261 0.0978261 0.0978261 0 0 0 0 0 0 0 0.0978261 0.0978261 0.0978261 0.0978261 0.0978261 0.0978261 0.0978261 0 0.0978261 0.0978261 0.0978261 0.0978261 0.0978261 0.0978261 0.0978261 0.195652 0.0978261 0.0978261 0.0978261 0.0978261 0.0978261 0.0978261 0.0978261 0 0 0 0 0 0 0 0 0.0978261 0.0978261 0.0978261 0.0978261 0.0978261 0.0978261 0.0978261 0.0978261 0 0 0 0.0978261 0.0978261 0.0978261 0.0978261 0.0978261 0.0978261 0.0978261 0.0978261 0 0 0 0 0 0 0 0 0 0 0 0 0 0 0 0 0 0 0 0 0 0 0 0 0 0 0 0 0 0 0 0 0 0 0 0 0 0 0 0.0978261 0.0978261 0.0978261 0.0978261 0.0978261 0.0978261 0.0978261 0.0978261 0 0 0 0 0 0 0 0 0 0 0.0978261 0.0978261 0.0978261 0.0978261 0.0978261 0.0978261 0.195652 0.293478 0.293478 0.293478 0.293478 0.521739 0.652174 0.652174 0.75 0.75 0.804348 0.902174 0.902174 0.902174 0.804348 0.576087 0.445652 0.347826 0.347826 0.347826 0.347826 0.347826 0.152174 0.152174 0.152174 0.152174 0.152174 0.152174 0.282609 0.282609 0.282609 0.478261 0.478261 0.706522 0.902174 0.902174 0.902174 0.804348 0.902174 0.902174 0.902174 0.902174 1 1 1 1 1 1 1 1 1 0.869565 0.869565 0.73913 0.73913 0.543478 0.576087 0.576087 0.380435 0.282609 0.282609 0.282609 0.282609 0.282609 0.413043 0.413043 0.413043 0.608696 0.706522 0.706522 0.771739 0.771739 0.771739 0.771739 0.771739 1 1 1 1 1 1 0.869565 0.869565 0.771739 0.771739 0.771739 0.771739 0.576087 0.478261 0.478261 0.478261 0.282609 0.282609 0.282609 0.184783 0.184783 0.0543478 0.315217 0.413043 0.51087 0.51087 0.608696 0.804348 0.804348 0.804348 0.804348 0.804348 0.48913 0.293478 0.293478 0 0 0 0 0 0 0 0 0 0 0 0 0 0 0 0 0 0 0 0 0 0 0 0 0 0 0 0 0 0 0 0 0 0 0 0 0 0 0 0 0 0 0 0 0 0 0 0 0 0 0 0 0 0 0 0 0 0.130435 0.130435 0.130435 0.130435 0.130435 0.130435 0.228261 0.228261 0.0978261 0.0978261 0.0978261 0.0978261 0.0978261 0.0978261 0.0978261 0.0978261 0.0978261 0.0978261 0.0978261 0.0978261 0.0978261 0.0978261 0 0 0 0 0 0 0 0 0 0 0 0 0 0 0 0 0 0 0 0 0 0 0 0 0 0 0 0 0 0 0 0 0 0 0 0 0 0 0 0 0 0 0 0 0 0 0 0 0 0 0.0978261 0.0978261 0.0978261 0.195652 0.195652 0.195652 0.195652 0.195652 0.195652 0.0978261 0.0978261 0 0 0.0978261 0.195652 0.195652 0.195652 0.195652 0.25 0.25 0.25 0.152174 0.0543478 0.152174 0.152174 0.152174 0.152174 0.152174 0.152174 0.0978261 0.0978261 0 0 0.0978261 0.0978261 0.195652 0.195652 0.195652 0.195652 0.195652 0.195652 0.0978261 0.0978261 0 0 0 0 0 0 0 0 0 0 0 0.0978261 0.0978261 0.0978261 0.0978261 0.0978261 0.0978261 0.0978261 0.0978261 0 0 0 0 0 0 0.0978261 0.0978261 0.0978261 0.0978261 0.0978261 0.25 0.25 0.25 0.25 0.152174 0.152174 0.152174 0.152174 0.0543478 0.0543478 0.0543478 0 0 0 0 0 0 0.0978261 0.0978261 0.0978261 0.0978261 0.195652 0.195652 0.326087 0.326087 0.326087 0.228261 0.326087 0.423913 0.423913 0.326087 0.326087 0.423913 0.423913 0.423913 0.423913 0.282609 0.282609 0.380435 0.445652 0.445652 0.445652 0.543478 0.543478 0.543478 0.543478 0.543478 0.25 0.293478 0.293478 0.0978261 0.0978261 0.0978261 0.0978261 0.0978261 0.195652 0.0978261 0.0978261 0.0978261 0.0978261 0.0978261 0.0978261 0.0978261 0.0978261 0 0 0 0 0 0 0 0 0 0 0 0 0 0 0.0978261 0.195652 0.195652 0.195652 0.195652 0.195652 0.195652 0.195652 0.195652 0.25 0.152174 0.25 0.25 0.25 0.347826 0.445652 0.445652 0.445652 0.347826 0.347826 0.347826 0.293478 0.347826 0.152174 0.152174 0.152174 0.152174 0.0543478 0.0543478 0.0543478 0.0543478 0.152174 0.152174 0.0978261 0.25 0.25 0.347826 0.347826 0.347826 0.25 0.25 0.25 0.25 0.152174 0.0543478 0.0543478 0 0.130435 0.228261 0.228261 0.228261 0.326087 0.326087 0.326087 0.326087 0.195652 0.195652 0.0978261 0.0978261 0 0 0.0978261 0.0978261 0.0978261 0.0978261 0.0978261 0.0978261 0.0978261 0.0978261 0 0 0 0 0 0 0 0 0 0 0 0 0 0 0 0 0.228261 0.326087 0.326087 0.326087 0.326087 0.326087 0.326087 0.326087 0.0978261 0.0978261 0.130435 0.130435 0.130435 0.130435 0.130435 0.130435 0.228261 0.228261 0.0978261 0.0978261 0.0978261 0.0978261 0.0978261 0.0978261 0.0978261 0 0 0 0 0 0 0 0 0 0 0 0 0 0 0 0 0 0 0 0.0978261 0.0978261 0.0978261 0.0978261 0.0978261 0.0978261 0.0978261 0.0978261 0.0978261 0 0 0 0 0.0543478 0.0543478 0.0543478 0.0543478 0.0543478 0.0543478 0.0543478 0.0543478 0.0543478 0.0543478 0.0543478 0 0 0 0 0 0 0 0 0 0.0978261 0.0978261 0.0978261 0.0978261 0.0978261 0.0978261 0.195652 0.195652 0.326087 0.228261 0.282609 0.282609 0.282609 0.282609 0.282609 0.184783 0.0543478 0.0543478 0.0543478 0.0543478 0.0543478 0 0 0 0 0 0.195652 0.195652 0.195652 0.195652 0.195652 0.195652 0.293478 0.293478 0.293478 0.293478 0.293478 0.293478 0.293478 0.293478 0.293478 0.195652 0.0978261 0 0 0 0 0 0 0 0 0.0543478 0.0543478 0.0543478 0.0543478 0.0543478 0.0543478 0.0543478 0.0543478 0.0543478 0.0543478 0.0543478 0 0 0 0 0 0 0 0 0 0 0 0.0978261 0.0978261 0.0978261 0.0978261 0.0978261 0.0978261 0.0978261 0.0978261 0.0978261 0.195652 0.195652 0.195652 0.293478 0.293478 0.293478 0.293478 0.195652 0.0978261 0.0978261 0.0978261 0 0 0 0 0 0 0 0 0 0 0 0 0 0 0 0.0978261 0.228261 0.228261 0.228261 0.228261 0.228261 0.228261 0.228261 0.228261 0 0 0 0 0 0 0 0 0 0 0 0 0 0 0 0 0.0543478 0.0543478 0.0543478 0.0543478 0.0543478 0.0543478 0.0543478 0.0543478 0.0543478 0.0543478 0.0543478 0.0543478 0.0543478 0 0 0 0.130435 0.130435 0.130435 0.130435 0.130435 0.130435 0.130435 0.130435 0 0 0 0 0 0 0 0 0 0 0.0978261 0.152174 0.152174 0.152174 0.152174 0.152174 0.152174 0.152174 0.0543478 0.0543478 0.0543478 0.282609 0.282609 0.282609 0.228261 0.228261 0.228261 0.228261 0.228261 0 0 0 0 0 0 0 0 0 0 0.130435 0.130435 0.130435 0.130435 0.130435 0.130435 0.130435 0.130435 0.130435 0 0 0 0.0978261 0.0978261 0.0978261 0.0978261 0.0978261 0.0978261 0.0978261 0.0978261 0.0978261 0 0 0 0 0 0 0 0 0 0 0 0 0 0 0 0 0 0 0 0 0.0978261 0.0978261 0.0978261 0.0978261 0.0978261 0.0978261 0.0978261 0.0978261 0.0978261 0 0 0 0 0 0 0 0 0 0 0 0 0 0 0 0 0 0 0 0 0 0 0 0 0.0978261 0.0978261 0.0978261 0.0978261 0.195652 0.326087 0.326087 0.326087 0.228261 0.228261 0.228261 0.228261 0.228261 0 0 0 0 0 0 0 0 0 0.0978261 0.0978261 0.0978261 0.0978261 0.0978261 0.0978261 0.0978261 0.0978261 0 0 0 0 0 0 0 0 0 0 0 0 0 0.0978261 0.195652 0.195652 0.195652 0.195652 0.195652 0.195652 0.195652 0.195652 0 0 0 0 0 0 0 0 0 0 0 0 0 0 0.0978261 0.0978261 0.0978261 0.228261 0.228261 0.228261 0.228261 0.228261 0.130435 0.130435 0.130435 0.130435 0 0 0 0 0 0 0 0 0.0978261 0.0978261 0.0978261 0.0978261 0.0978261 0.0978261 0.0978261 0.0978261 0 0 0 0 0 0 0 0 0 0.0978261 0.0978261 0.0978261 0.0978261 0.0978261 0.0978261 0.0978261 0.0978261 0 0.0543478 0.0543478 0.0543478 0.0543478 0.0543478 0.0543478 0.0543478 0.0543478 0.0543478 0.0543478 0.152174 0.152174 0.195652 0.195652 0.195652 0.195652 0.195652 0.195652 0.0978261 0.0978261 0 0.0543478 0.152174 0.152174 0.152174 0.152174 0.25 0.25 0.25 0.347826 0.347826 0.25 0.25 0.195652 0.0978261 0.0978261 0.195652 0.0978261 0.0978261 0.0978261 0.0978261 0.0978261 0.0978261 0.0978261 0 0 0 0 0 0 0.0978261 0.0978261 0.0978261 0.0978261 0.0978261 0.0978261 0.0978261 0.0978261 0 0 0 0 0 0 0 0 0.0978261 0.0978261 0.0978261 0.0978261 0.0978261 0.0978261 0.0978261 0.0978261 0.228261 0.130435 0.130435 0.130435 0.130435 0.130435 0.130435 0.130435 0.130435 0 0 0 0 0 0.0978261 0.0978261 0.195652 0.195652 0.195652 0.195652 0.195652 0.195652 0.0978261 0.0978261 0.0978261 0 0 0 0 0 0 0 0 0 0 0 0 0 0 0 0 0 0 0 0 0 0 0 0 0 0 0 0 0 0 0 0 0 0 0 0 0 0 0 0 0 0 0 0.0978261 0.195652 0.195652 0.195652 0.195652 0.195652 0.195652 0.195652 0.0978261 0 0 0 0 0.0978261 0.0978261 0.0978261 0.0978261 0.0978261 0.0978261 0.0978261 0.0978261 0 0 0 0 0 0.0978261 0.0978261 0.0978261 0.0978261 0.0978261 0.0978261 0.0978261 0.0978261 0 0 0 0.0978261 0.0978261 0.0978261 0.0978261 0.0978261 0.0978261 0.0978261 0.0978261 0 0 0 0 0 0.0978261 0.0978261 0.0978261 0.0978261 0.0978261 0.0978261 0.0978261 0.228261 0.228261 0.130435 0.130435 0.130435 0.184783 0.184783 0.282609 0.282609 0.152174 0.152174 0.152174 0.152174 0.25 0.347826 0.347826 0.25 0.195652 0.195652 0.293478 0.293478 0.293478 0.195652 0.195652 0.293478 0.293478 0.293478 0.293478 0.195652 0.195652 0.0978261 0.0978261 0 0 0 0.130435 0.130435 0.130435 0.130435 0.130435 0.130435 0.228261 0.228261 0.0978261 0.0978261 0.0978261 0.195652 0.195652 0.195652 0.0978261 0.0978261 0.0978261 0.0978261 0.0978261 0.0978261 0 0 0.0978261 0.0978261 0.0978261 0.0978261 0.0978261 0.0978261 0.0978261 0.0978261 0.0978261 0 0 0 0 0 0 0 0 0 0 0 0 0 0 0 0 0 0 0 0 0 0 0 0 0.0978261 0.0978261 0.195652 0.195652 0.195652 0.195652 0.195652 0.195652 0.0978261 0.0978261 0.0978261 0 0 0 0 0 0 0 0 0 0 0 0 0 0 0.0978261 0.0978261 0.0978261 0.0978261 0.0978261 0.358696 0.358696 0.358696 0.358696 0.358696 0.358696 0.358696 0.358696 0.0978261 0.0978261 0.0978261 0.0978261 0.0978261 0.0978261 0.0978261 0.0978261 0.0978261 0.0978261 0.0978261 0.0978261 0.0978261 0 0 0 0 0 0 0 0 0 0 0 0 0 0 0 0 0.0978261 0.0978261 0.0978261 0.0978261 0.0978261 0.0978261 0.0978261 0.0978261 0 0 0 0 0 0 0 0 0.0978261 0.0978261 0.0978261 0.0978261 0.0978261 0.0978261 0.0978261 0.0978261 0.0978261 0.0978261 0.0978261 0.0978261 0.0978261 0.0978261 0.0978261 0.0978261 0 0 0 0 0 0 0.0543478 0.0543478 0.0543478 0.0543478 0.0543478 0.0543478 0.0543478 0.0543478 0.0543478 0.0543478 0 0 0 0 0 0 0 0 0 0 0 0 0 0 0.0978261 0.0978261 0.0978261 0.0978261 0.0978261 0.0978261 0.0978261 0.0978261 0 0 0 0 0 0 0 0 0 0 0 0 0 0 0 0 0 0 0 0 0 0 0 0 0.0543478 0.0543478 0.0543478 0.0543478 0.0543478 0.0543478 0.0543478 0.0543478 0.0543478 0.0543478 0.0978261 0.0978261 0.0978261 0.0978261 0.0978261 0.0978261 0.0978261 0.0978261 0 0 0 0 0 0 0 0 0 0 0 0 0 0 0 0 0 0 0 0 0 0 0 0 0 0 0 0 1 1 1 1 1 1 1 1 1 1 1 1 1 1 1 1 1 1 1 1 1 1 1 1 1 1 1 1 1 1 1 1 1 1 1 1 1 1 1 1 1 1 1 1 1 1 1 1 1 1 1 1 1 1 1 1 1 1 1 1 1 1 1 1 1 1 1 1 1 1 1 1 1 1 1 1 1 1 1 1 1 1 1 1 1 1 1 1 1 1 1 0.902174 0.902174 0.902174 0.902174 0.902174 0.902174 0.771739 0.771739 0.771739 0.771739 0.771739 0.771739 0.771739 0.771739 0.771739 0.771739 0.771739 0.771739 0.771739 0.771739 0.771739 0.641304 0.902174 0.902174 0.902174 0.902174 0.902174 0.804348 0.804348 0.804348 0.543478 0.543478 0.543478 0.445652 0.445652 0.445652 0.445652 0.445652 0.445652 0.445652 0.445652 0.445652 0.445652 0.445652 0.445652 0.445652 0.445652 0.445652 0.445652 0.445652 0.445652 0.445652 0.445652 0.347826 0.25 0.25 0.25 0.25 0.25 0.25 0.25 0.25 0.25 0.25 0.25 0.25 0.25 0.25 0.25 0.25 0.25 0.25 0.25 0.25 0.25 0.152174 0.152174 0.152174 0.152174 0.152174 0.152174 0.152174 0.152174 0.152174 0.152174 0.152174 0.0543478 0.0543478 0.0543478 0.0543478 0.0543478 0.0543478 0.0543478 0.0543478 0.0543478 0.0543478 0.0543478 0.0543478 0.0543478 0.0543478 0.0543478 0.0543478 0.0543478 0.0543478 0.0543478 0.0543478 0.0543478 0.0543478 0.0543478 0.0543478 0.0543478 0.0543478 0.0543478 0.152174 0.152174 0.152174 0.152174 0.152174 0.152174 0.152174 0.152174 0.0543478 0.0543478 0.0543478 0 0 0 0 0 0 0 0 0 0 0 0 0 0 0 0 0 0 0 0 0 0 0 0 0 0 0 0 0 0 0 0 0 0 0 0 0 0 0 0 0 0 0 0 0 0 0 0 0 0 0 0 0 0 0 0 0 0 0 0 0 0 0 0 0 0 0 0 0 0 0 0 0 0 0 0 0 0 0 0 0 0 0 0 0 0 0 0 0 0 0 0 0 0 0 0 0 0 0 0 0 0 0 0 0 0 0 0 0 0 0 0 0 0 0 0 0 0 0 0 0 0 0 0 0 0 0 0 0 0 0 0 0 0 0 0 0 0 0 0 0 0 0 0 0 0 0 0 0 0 0 0 0 0 0 0 0 0 0 0 0 0 0 0 0 0 0 0 0 0 0 0 0 0 0 0 0 0 0 0 0 0 0 0 0 0 0 0 0 0 0 0 0 0 0 0 0 0 0 0 0 0 0 0 0 0 0 0 0 0 0 0 0 0 0 0 0 0 0 0 0 0 0 0 0 0 0 0 0 0 0 0 0 0 0 0 0 0 0 0 0 0 0 0 0 0 0 0 0 0 0 0 0 0 0 0 0 0 0 0 0 0 0 0 0 0 0 0 0 0 0 0 0 0 0 0 0 0 0 0 0 0 0 0 0 0 0 0 0 0 0 0 0 0 0 0 0.0978261 0.0978261 0.0978261 0.0978261 0.0978261 0.0978261 0.0978261 0.0978261 0 0 0 0 0 0 0 0 0 0 0 0 0 0 0 0 0 0 0 0 0 0.73913 0.73913 0.869565 0.869565 0.869565 0.869565 0.869565 0.869565 1 1 1 1 1 1 1 1 1 1 1 1 1 0.869565 0.869565 0.869565 0.869565 0.869565 0.869565 0.869565 0.869565 0.869565 0.73913 0.73913 0.73913 0.73913 0.73913 0.73913 0.641304 0.641304 0.543478 0.347826 0.347826 0.25 0.152174 0.152174 0.152174 0.152174 0.152174 0.152174 0.152174 0.152174 0.152174 0.0543478 0.0543478 0.0543478 0.0543478 0.0543478 0.0543478 0.0543478 0.0543478 0.0543478 0.0543478 0.0543478 0.0543478 0.0543478 0.0543478 0.0543478 0.0543478 0.0543478 0.0543478 0.0543478 0 0 0 0 0 0 0 0 0 0 0 0 0 0 0 0 0 0 0 0 0 0 0 0 0 0 0 0 0 0 0 0 0 0 0 0 0 0 0 0 0 0 0 0 0 0 0 0 0 0 0 0 0 0 0 0 0 0 0 0 0 0 0 0 0 0 0 0 0 0 0 0 0 0 0 0 0 0] action=Normalize
New "LoadShape.loadshape2" sinterval=30 npts=2880 mult=[ 0 0 0 0 0 0 0 0 0 0 0 0 0 0 0 0 0 0 0 0 0 0 0 0 0 0 0 0 0 0 0 0 0 0 0 0 0 0 0 0 0 0 0 0 0 0 0 0 0 0 0 0 0 0 0 0 0 0 0 0 0 0 0 0 0 0 0 0 0 0 0 0 0 0 0 0 0 0 0 0 0 0 0 0 0 0 0 0 0 0 0 0 0 0 0 0 0 0 0 0 0 0 0 0 0 0 0 0 0 0 0 0 0 0 0 0 0 0 0 0 0 0 0 0 0 0 0 0 0 0 0.137931 0.137931 0.137931 0.137931 0.137931 0.137931 0.137931 0.137931 0 0 0 0 0 0 0 0 0 0 0 0 0 0 0 0 0 0 0 0 0 0 0 0 0 0 0 0 0 0 0 0 0 0 0 0 0 0 0 0 0 0 0 0 0 0 0 0 0 0 0 0 0 0 0 0 0 0 0 0 0 0 0 0 0 0 0 0 0 0 0 0 0 0 0 0 0 0 0 0 0.0574713 0.0574713 0.0574713 0.0574713 0.0574713 0.0574713 0.0574713 0.0574713 0.0574713 0.16092 0.103448 0.103448 0.103448 0.103448 0.103448 0.103448 0.103448 0 0 0 0 0 0 0 0 0 0 0 0 0 0 0.0574713 0.0574713 0.0574713 0.0574713 0.0574713 0.0574713 0.0574713 0.0574713 0.0574713 0.0574713 0 0 0 0 0 0 0 0 0.103448 0.103448 0.103448 0.103448 0.103448 0.103448 0.103448 0.103448 0 0 0 0 0.103448 0.206897 0.206897 0.206897 0.206897 0.206897 0.344828 0.241379 0.241379 0.137931 0.137931 0.137931 0.137931 0.137931 0 0 0 0 0 0 0 0 0 0 0 0 0 0 0 0 0 0 0.103448 0.103448 0.103448 0.103448 0.103448 0.103448 0.103448 0.103448 0 0 0 0 0 0 0 0 0 0 0 0 0 0 0 0 0 0 0 0 0.137931 0.137931 0.137931 0.137931 0.137931 0.137931 0.137931 0.137931 0 0 0 0 0 0 0 0 0 0 0 0 0 0 0 0 0 0 0 0 0 0 0 0 0 0 0 0 0 0 0 0 0 0 0 0 0 0 0 0 0 0 0 0 0 0 0 0 0 0 0 0 0 0 0 0 0 0 0 0.137931 0.137931 0.137931 0.137931 0.137931 0.137931 0.137931 0.137931 0.137931 0.137931 0.137931 0.137931 0.137931 0.137931 0.137931 0.137931 0 0 0 0 0 0 0 0 0 0 0 0 0 0 0 0 0 0 0 0 0 0 0 0 0 0 0 0 0 0 0 0 0 0 0 0 0 0 0 0 0 0 0 0 0 0 0 0 0 0 0 0 0 0 0 0 0 0 0 0 0 0 0 0 0 0 0 0 0 0 0 0 0 0 0 0 0 0 0 0 0 0 0 0 0 0 0 0 0 0 0 0 0 0 0 0 0 0 0 0 0 0 0 0.137931 0.137931 0.137931 0.137931 0.137931 0.137931 0.137931 0.137931 0 0 0 0 0 0 0 0 0 0 0 0 0 0 0 0 0 0 0 0 0 0 0 0 0 0 0 0 0 0 0 0 0 0 0 0 0 0 0 0 0.103448 0.103448 0.103448 0.103448 0.103448 0.103448 0.103448 0.103448 0 0 0.103448 0.103448 0.103448 0.103448 0.103448 0.103448 0.103448 0.103448 0 0 0 0 0 0 0 0 0 0 0 0 0 0 0 0 0 0 0 0 0 0 0 0 0 0 0 0 0 0 0 0 0 0 0 0 0 0 0 0 0 0 0 0 0 0 0 0 0 0 0 0 0 0 0 0 0 0 0 0 0 0 0 0 0 0 0.103448 0.103448 0.103448 0.103448 0.103448 0.103448 0.103448 0.103448 0 0 0 0 0 0 0 0 0 0 0 0 0 0 0 0 0 0 0 0 0 0 0 0 0 0 0 0 0 0 0.103448 0.103448 0.16092 0.16092 0.16092 0.16092 0.16092 0.16092 0.0574713 0.0574713 0.0574713 0.0574713 0 0.103448 0.103448 0.103448 0.103448 0.103448 0.103448 0.103448 0.103448 0 0 0 0 0 0 0 0 0 0 0 0 0 0 0 0 0 0 0 0.0574713 0.0574713 0.0574713 0.0574713 0.0574713 0.0574713 0.0574713 0.0574713 0.0574713 0.0574713 0 0 0 0 0 0 0 0 0 0 0 0.0574713 0.0574713 0.0574713 0.16092 0.298851 0.298851 0.298851 0.298851 0.298851 0.402299 0.402299 0.402299 0.402299 0.505747 0.563218 0.666667 0.666667 0.528736 0.425287 0.563218 0.563218 0.563218 0.563218 0.356322 0.356322 0.356322 0.252874 0.252874 0.252874 0.114943 0.114943 0.114943 0.114943 0.114943 0.114943 0.252874 0.551724 0.551724 0.551724 0.551724 0.655172 0.655172 0.655172 0.758621 0.862069 0.862069 0.862069 0.862069 0.862069 0.862069 0.862069 0.862069 0.862069 0.862069 0.862069 0.862069 0.862069 1 0.862069 0.862069 0.862069 0.862069 0.862069 0.862069 0.862069 0.655172 0.655172 0.655172 0.655172 0.655172 0.517241 0.517241 0.655172 0.655172 0.758621 0.758621 0.62069 0.724138 0.862069 0.862069 0.862069 0.862069 0.862069 0.862069 0.862069 0.758621 0.758621 0.62069 0.62069 0.62069 0.724138 0.62069 0.62069 0.517241 0.413793 0.413793 0.413793 0.413793 0.413793 0.275862 0.275862 0.275862 0.275862 0.275862 0.413793 0.551724 0.689655 0.793103 0.793103 0.574713 0.574713 0.574713 0.574713 0.574713 0.298851 0.0574713 0.0574713 0.0574713 0.0574713 0.0574713 0.0574713 0.0574713 0.0574713 0.0574713 0.0574713 0.0574713 0.16092 0.16092 0.16092 0.16092 0.16092 0.16092 0.16092 0.16092 0.0574713 0.0574713 0.0574713 0.0574713 0.0574713 0.0574713 0.0574713 0.0574713 0.0574713 0.0574713 0.0574713 0.0574713 0.0574713 0.0574713 0.0574713 0.0574713 0 0 0 0 0 0 0 0 0 0 0 0 0 0 0 0 0 0 0 0 0 0 0 0 0 0 0 0 0 0 0 0 0 0 0 0 0 0 0 0 0 0 0 0 0 0 0 0 0 0 0 0 0 0 0 0 0 0 0 0 0 0 0 0 0 0 0 0 0 0 0 0 0 0 0 0 0 0 0 0 0 0 0 0.103448 0.103448 0.103448 0.206897 0.206897 0.206897 0.206897 0.206897 0.16092 0.218391 0.218391 0.218391 0.218391 0.218391 0.321839 0.321839 0.321839 0.425287 0.425287 0.425287 0.264368 0.206897 0.103448 0.103448 0.103448 0.103448 0.206897 0.206897 0.206897 0.206897 0.206897 0.206897 0.344828 0.344828 0.275862 0.275862 0.275862 0.275862 0.275862 0.275862 0.275862 0.137931 0 0 0 0 0.103448 0.103448 0.103448 0.103448 0.103448 0.103448 0.241379 0.344828 0.344828 0.241379 0.344828 0.344828 0.344828 0.344828 0.206897 0.103448 0.103448 0.103448 0.103448 0 0 0 0 0 0 0 0 0 0 0 0 0 0 0 0 0 0 0.103448 0.103448 0.103448 0.103448 0.103448 0.103448 0.103448 0.103448 0 0 0 0.0574713 0.0574713 0.0574713 0.0574713 0.0574713 0.0574713 0.0574713 0.0574713 0.0574713 0.0574713 0.0574713 0.16092 0.16092 0.103448 0.103448 0.103448 0.103448 0.103448 0.103448 0.103448 0 0 0 0.0574713 0.0574713 0.0574713 0.114943 0.114943 0.114943 0.114943 0.114943 0.114943 0.172414 0.172414 0.172414 0.114943 0.114943 0.114943 0.0574713 0.0574713 0.195402 0.195402 0.195402 0.195402 0.195402 0.195402 0.195402 0.195402 0.0574713 0.0574713 0.0574713 0.0574713 0.0574713 0.0574713 0.0574713 0.0574713 0.0574713 0.0574713 0.103448 0.103448 0.103448 0.206897 0.206897 0.206897 0.206897 0.206897 0.103448 0.103448 0.103448 0 0 0 0 0 0 0 0 0.103448 0.103448 0.264368 0.367816 0.367816 0.367816 0.367816 0.367816 0.425287 0.321839 0.218391 0.114943 0.218391 0.218391 0.16092 0.16092 0.16092 0.264368 0.264368 0.206897 0.16092 0.16092 0.16092 0.264368 0.264368 0.16092 0.16092 0.16092 0.16092 0.298851 0.298851 0.298851 0.195402 0.137931 0.137931 0.241379 0.241379 0.103448 0.103448 0.103448 0.103448 0.103448 0.103448 0 0 0 0 0 0.137931 0.241379 0.241379 0.241379 0.241379 0.241379 0.241379 0.241379 0.103448 0 0 0 0 0.0574713 0.0574713 0.0574713 0.0574713 0.0574713 0.0574713 0.0574713 0.0574713 0.0574713 0.0574713 0.0574713 0.0574713 0.0574713 0 0 0 0 0 0 0 0 0 0 0 0 0 0 0 0 0 0 0 0 0 0.103448 0.103448 0.103448 0.103448 0.103448 0.103448 0.103448 0.103448 0.16092 0.16092 0.16092 0.16092 0.16092 0.298851 0.402299 0.402299 0.298851 0.298851 0.436782 0.436782 0.37931 0.241379 0.137931 0.137931 0.137931 0.137931 0 0 0 0 0 0 0 0 0 0 0 0 0 0 0 0 0 0 0 0 0 0 0 0 0 0 0 0 0 0 0 0 0 0 0 0 0 0 0 0 0 0 0 0 0 0 0.103448 0.103448 0.103448 0.103448 0.103448 0.103448 0.103448 0.103448 0 0 0 0.0574713 0.0574713 0.0574713 0.0574713 0.16092 0.16092 0.16092 0.218391 0.218391 0.218391 0.218391 0.218391 0.114943 0.0574713 0.0574713 0.0574713 0.16092 0.16092 0.16092 0.16092 0.103448 0.103448 0.103448 0.103448 0 0 0 0 0 0 0 0.137931 0.137931 0.275862 0.275862 0.275862 0.275862 0.275862 0.275862 0.137931 0.137931 0.0574713 0.0574713 0.0574713 0.0574713 0.0574713 0.0574713 0.0574713 0.0574713 0.0574713 0.114943 0.114943 0.114943 0.0574713 0.0574713 0.0574713 0.0574713 0.0574713 0.0574713 0.0574713 0.0574713 0.0574713 0 0 0 0 0.103448 0.103448 0.103448 0.103448 0.103448 0.103448 0.103448 0.103448 0 0 0 0 0 0 0 0 0 0.103448 0.103448 0.103448 0.103448 0.103448 0.103448 0.16092 0.16092 0.0574713 0.0574713 0.0574713 0.0574713 0.0574713 0.0574713 0.0574713 0.0574713 0.0574713 0.0574713 0 0 0 0 0 0 0 0 0 0 0 0 0 0.137931 0.137931 0.137931 0.137931 0.241379 0.241379 0.241379 0.241379 0.103448 0.103448 0.103448 0.103448 0.103448 0.103448 0.103448 0.103448 0.103448 0.103448 0.103448 0.103448 0.103448 0 0 0 0.103448 0.103448 0.103448 0.103448 0.103448 0.103448 0.103448 0.103448 0 0 0 0.137931 0.137931 0.137931 0.137931 0.137931 0.137931 0.137931 0.137931 0 0 0 0 0 0 0 0 0.137931 0.137931 0.137931 0.137931 0.137931 0.137931 0.137931 0.137931 0 0 0 0 0 0 0 0 0 0 0 0 0 0 0 0 0 0 0 0 0.103448 0.103448 0.103448 0.241379 0.241379 0.241379 0.241379 0.241379 0.241379 0.137931 0.137931 0 0 0 0 0 0 0 0 0 0 0 0 0 0 0 0 0.0574713 0.0574713 0.0574713 0.0574713 0.0574713 0.0574713 0.0574713 0.0574713 0.0574713 0.0574713 0.0574713 0.0574713 0.0574713 0.103448 0.103448 0.103448 0.103448 0.103448 0.103448 0.103448 0.103448 0 0 0.16092 0.16092 0.16092 0.16092 0.16092 0.16092 0.16092 0.16092 0.16092 0.0574713 0.0574713 0 0 0 0.137931 0.137931 0.137931 0.241379 0.241379 0.241379 0.241379 0.241379 0.241379 0.103448 0.103448 0 0 0 0 0 0 0 0 0 0 0 0 0 0 0 0 0 0 0 0 0 0 0 0 0 0 0 0 0 0 0 0 0 0 0 0 0 0 0 0 0 0 0 0 0 0 0 0 0.103448 0.103448 0.103448 0.103448 0.103448 0.103448 0.103448 0.103448 0 0 0 0 0 0 0 0 0 0 0 0 0 0 0 0 0 0 0.0574713 0.0574713 0.0574713 0.0574713 0.0574713 0.0574713 0.0574713 0.0574713 0.0574713 0.0574713 0.0574713 0.0574713 0.0574713 0 0 0 0 0 0 0 0 0 0.103448 0.103448 0.103448 0.103448 0.103448 0.103448 0.103448 0.103448 0 0.137931 0.137931 0.137931 0.137931 0.137931 0.137931 0.137931 0.275862 0.195402 0.195402 0.195402 0.195402 0.195402 0.195402 0.195402 0.0574713 0.16092 0.16092 0.367816 0.367816 0.310345 0.310345 0.310345 0.310345 0.206897 0.206897 0.103448 0 0 0 0 0 0 0 0 0 0.0574713 0.16092 0.16092 0.16092 0.298851 0.298851 0.298851 0.298851 0.298851 0.333333 0.333333 0.333333 0.137931 0.137931 0.137931 0.137931 0.137931 0 0 0 0 0.137931 0.137931 0.275862 0.275862 0.333333 0.333333 0.333333 0.333333 0.195402 0.195402 0.0574713 0.195402 0.195402 0.195402 0.298851 0.298851 0.241379 0.241379 0.241379 0.103448 0.103448 0.103448 0.103448 0 0 0 0 0 0 0 0 0 0 0.137931 0.137931 0.137931 0.137931 0.137931 0.137931 0.137931 0.137931 0 0 0 0 0 0 0 0 0 0 0 0 0 0 0 0 0 0 0 0 0 0 0 0 0 0 0 0 0 0 0 0 0 0 0 0 0 0 0 0 0 0 0 0 0 0 0.103448 0.103448 0.103448 0.103448 0.103448 0.103448 0.103448 0.103448 0 0 0 0 0 0.195402 0.195402 0.195402 0.195402 0.195402 0.195402 0.195402 0.195402 0.0574713 0.0574713 0.0574713 0.0574713 0.0574713 0 0 0 0 0.103448 0.103448 0.103448 0.103448 0.103448 0.103448 0.103448 0.103448 0 0 0 0 0.0574713 0.0574713 0.0574713 0.264368 0.264368 0.264368 0.264368 0.264368 0.264368 0.264368 0.367816 0.103448 0.103448 0.103448 0.103448 0.103448 0.103448 0.206897 0.206897 0.241379 0.298851 0.298851 0.298851 0.298851 0.298851 0.298851 0.195402 0.0574713 0.0574713 0.0574713 0.0574713 0.0574713 0 0 0 0 0 0 0.137931 0.137931 0.137931 0.137931 0.195402 0.195402 0.195402 0.195402 0.298851 0.16092 0.264368 0.264368 0.264368 0.264368 0.264368 0.206897 0.16092 0.218391 0.114943 0.114943 0.218391 0.218391 0.218391 0.356322 0.356322 0.356322 0.356322 0.356322 0.298851 0.137931 0.137931 0 0 0 0 0 0 0 0 0 0 0 0 0.137931 0.137931 0.137931 0.137931 0.137931 0.137931 0.137931 0.137931 0 0 0 0 0.137931 0.137931 0.137931 0.137931 0.137931 0.137931 0.137931 0.137931 0 0 0 0.103448 0.206897 0.206897 0.206897 0.206897 0.206897 0.206897 0.206897 0.103448 0 0.103448 0.103448 0.103448 0.103448 0.103448 0.103448 0.103448 0.103448 0 0.0574713 0.0574713 0.0574713 0.0574713 0.0574713 0.0574713 0.0574713 0.0574713 0.0574713 0.0574713 0.0574713 0 0 0 0 0 0 0 0 0 0.103448 0.103448 0.103448 0.103448 0.103448 0.103448 0.103448 0.103448 0 0 0 0 0 0 0 0 0 0 0 0.0574713 0.0574713 0.0574713 0.0574713 0.0574713 0.0574713 0.0574713 0.0574713 0.16092 0.16092 0.103448 0.103448 0.103448 0.103448 0.16092 0.16092 0.0574713 0.114943 0.114943 0.114943 0.114943 0.114943 0.114943 0.114943 0.0574713 0.0574713 0.0574713 0 0 0 0 0 0 0 0 0 0 0 0 0 0 0 0.137931 0.137931 0.137931 0.137931 0.137931 0.137931 0.137931 0.137931 0 0 0 0 0 0 0 0 0 0 0 0 0 0 0 0 0 0 0 0 0 0.103448 0.103448 0.103448 0.103448 0.103448 0.103448 0.103448 0.103448 0 0 0 0 0 0 0 0.103448 0.103448 0.103448 0.103448 0.103448 0.103448 0.103448 0.103448 0 0 0 0 0 0 0 0 0 0 0 0 0 0 0 0 0 0 0 0 0 0 0 0 0 0 0 0 0 0 0 0 0 0 0 0 0 0 0 0.862069 0.862069 0.862069 0.862069 0.862069 0.862069 0.862069 1 1 1 1 1 1 1 1 1 1 1 1 1 1 1 1 1 1 1 1 1 1 1 1 1 1 1 1 1 1 1 1 1 1 1 1 1 1 1 1 1 1 1 1 1 1 1 1 1 1 1 1 1 1 1 1 1 0.862069 0.862069 0.862069 0.862069 0.862069 0.862069 0.862069 0.862069 0.862069 0.862069 1 1 1 1 1 1 1 1 1 1 1 1 1 1 1 1 1 1 0.862069 0.862069 0.862069 0.862069 0.862069 0.862069 0.862069 0.862069 0.862069 0.862069 0.724138 0.724138 0.724138 0.724138 0.724138 0.724138 0.724138 0.724138 0.724138 0.724138 0.724138 0.724138 0.724138 0.724138 0.724138 0.724138 0.62069 0.62069 0.62069 0.62069 0.62069 0.62069 0.62069 0.62069 0.62069 0.62069 0.62069 0.62069 0.482759 0.482759 0.482759 0.482759 0.482759 0.482759 0.482759 0.482759 0.482759 0.482759 0.482759 0.482759 0.482759 0.482759 0.482759 0.482759 0.482759 0.482759 0.482759 0.482759 0.482759 0.482759 0.482759 0.482759 0.482759 0.482759 0.482759 0.482759 0.37931 0.275862 0.275862 0.275862 0.275862 0.275862 0.275862 0.275862 0.275862 0.275862 0.275862 0.275862 0.275862 0.275862 0.275862 0.275862 0.275862 0.275862 0.275862 0.172414 0.172414 0.172414 0.172414 0.172414 0.172414 0.172414 0.172414 0.172414 0.172414 0.172414 0.172414 0.172414 0.172414 0.172414 0.172414 0.172414 0.172414 0.172414 0.114943 0.114943 0.114943 0.114943 0.114943 0.114943 0.114943 0.114943 0.114943 0.114943 0.114943 0.114943 0.114943 0.114943 0.114943 0.114943 0.114943 0.114943 0.114943 0.114943 0.114943 0.0574713 0.0574713 0.0574713 0.0574713 0.0574713 0.0574713 0.0574713 0.0574713 0.0574713 0.0574713 0.0574713 0.0574713 0.0574713 0.0574713 0.0574713 0.0574713 0.0574713 0.0574713 0 0 0 0 0 0 0 0 0 0 0 0 0 0 0 0 0 0 0 0 0 0 0 0 0 0 0 0 0 0 0 0 0 0 0 0 0 0 0 0 0 0 0 0 0 0 0 0 0 0 0 0 0 0 0 0 0 0 0 0 0 0 0 0 0 0 0 0 0 0 0 0 0 0 0 0 0 0 0 0 0 0 0 0 0 0 0 0 0 0 0 0 0 0 0 0 0 0 0 0 0 0 0 0 0 0 0 0 0 0 0 0 0 0 0 0 0 0 0 0 0 0 0 0 0 0 0 0 0 0 0 0 0 0 0 0 0 0 0 0 0 0 0 0 0 0 0 0 0 0 0 0 0 0 0 0 0 0 0 0 0 0 0 0 0 0 0 0 0 0 0 0 0 0 0 0 0 0 0 0 0 0 0 0 0 0 0 0 0 0 0 0 0 0 0 0 0 0 0 0 0 0 0 0 0 0 0 0 0 0 0 0 0 0 0 0 0 0 0 0 0 0 0 0 0 0 0 0.103448 0.103448 0.103448 0.103448 0.103448 0.103448 0.103448 0.103448 0 0 0 0 0 0 0 0 0 0 0 0 0 0 0 0 0 0 0 0 0 0 0 0 0 0 0 0 0 0 0 0 0 0 0 0 0 0 0 0 0 0 0 0 0 0 0 0 0 0 0 0 0 0 0 0 0 0 0 0 0 0 0 0 0 0 0 0 0 0 0.425287 0.482759 0.758621 0.896552 0.896552 0.896552 0.896552 1 1 1 1 1 1 1 1 1 1 1 1 1 1 1 1 1 1 0.862069 0.862069 0.862069 0.862069 0.862069 0.862069 0.862069 0.758621 0.517241 0.517241 0.37931 0.321839 0.321839 0.321839 0.218391 0.218391 0.218391 0.218391 0.114943 0.114943 0.114943 0.0574713 0.0574713 0.0574713 0.0574713 0.0574713 0.0574713 0.0574713 0.0574713 0.0574713 0.0574713 0.0574713 0.0574713 0.0574713 0.0574713 0.0574713 0.0574713 0 0 0 0 0 0 0 0 0 0 0 0 0 0 0 0 0 0 0 0 0 0 0 0 0 0 0 0 0 0 0 0 0 0 0 0 0 0 0 0 0 0 0 0 0 0 0 0 0 0 0 0 0 0 0 0 0 0 0 0 0 0 0 0 0 0 0 0 0 0 0 0 0 0 0 0 0 0 0 0 0 0 0 0 0 0] action=Normalize
New "LoadShape.loadshapeseg1" sinterval=30 npts=2880 csvfile=load_seg_1.csv
New "LoadShape.loadshapeseg2" sinterval=30 npts=2880 csvfile=load_seg_2.csv
New "LoadShape.loadshapeseg1g" sinterval=30 npts=2880 csvfile=load_seg_1G.csv
New "LoadShape.loadshapeseg2g" sinterval=30 npts=2880 csvfile=load_seg_2G.csv
New "LoadShape.loadshapeseg1gg" sinterval=30 npts=2880 csvfile=load_seg_1GG.csv
New "LoadShape.loadshapeseg2gg" sinterval=30 npts=2880 csvfile=load_seg_2GG.csv